*SPEF "ieee 1481-1999"
*DESIGN "uart_tx"
*DATE "11:11:11 Fri 11 11, 1111"
*VENDOR "OpenRCX"
*PROGRAM "Parallel Extraction"
*VERSION "1.0"
*DESIGN_FLOW "NAME_SCOPE LOCAL" "PIN_CAP NONE"
*DIVIDER /
*DELIMITER :
*BUS_DELIMITER []
*T_UNIT 1 NS
*C_UNIT 1 PF
*R_UNIT 1 OHM
*L_UNIT 1 HENRY

*NAME_MAP
*3 clk
*4 data_in[0]
*5 data_in[1]
*6 data_in[2]
*7 data_in[3]
*8 data_in[4]
*9 data_in[5]
*10 data_in[6]
*11 data_in[7]
*12 rst_n
*13 tx_busy
*14 tx_out
*15 tx_start
*16 _000_
*17 _001_
*18 _002_
*19 _003_
*20 _004_
*21 _005_
*22 _006_
*23 _007_
*24 _008_
*25 _009_
*26 _010_
*27 _011_
*28 _012_
*29 _013_
*30 _014_
*31 _015_
*32 _016_
*33 _017_
*34 _018_
*35 _019_
*36 _020_
*37 _021_
*38 _022_
*39 _023_
*40 _024_
*41 _025_
*42 _026_
*43 _027_
*44 _028_
*45 _029_
*46 _030_
*47 _031_
*48 _032_
*49 _033_
*50 _034_
*51 _035_
*52 _036_
*53 _037_
*54 _038_
*55 _039_
*56 _040_
*57 _041_
*58 _042_
*59 _043_
*60 _044_
*61 _045_
*62 _046_
*63 _047_
*64 _048_
*65 _049_
*66 _050_
*67 _051_
*68 _052_
*69 _053_
*70 _054_
*71 _055_
*72 _056_
*73 _057_
*74 _058_
*75 _059_
*76 _060_
*77 _061_
*78 _062_
*79 _063_
*80 _064_
*81 _065_
*82 _066_
*83 _067_
*84 _068_
*85 _069_
*86 _070_
*87 _071_
*88 _072_
*89 _073_
*90 _074_
*91 _075_
*92 _076_
*93 _077_
*94 _078_
*95 _079_
*96 _080_
*97 _081_
*98 _082_
*99 _083_
*100 _084_
*101 _085_
*102 _086_
*103 _087_
*104 _088_
*105 _089_
*106 _090_
*107 _091_
*108 _092_
*109 _093_
*110 _094_
*111 _095_
*112 _096_
*113 _097_
*114 _098_
*115 _099_
*116 _100_
*117 _101_
*118 _102_
*119 _103_
*120 _104_
*121 _105_
*122 _106_
*123 _107_
*124 _108_
*125 _109_
*126 _110_
*127 _111_
*128 bit_idx\[0\]
*129 bit_idx\[1\]
*130 bit_idx\[2\]
*131 clk_cnt\[0\]
*132 clk_cnt\[10\]
*133 clk_cnt\[11\]
*134 clk_cnt\[12\]
*135 clk_cnt\[13\]
*136 clk_cnt\[14\]
*137 clk_cnt\[15\]
*138 clk_cnt\[1\]
*139 clk_cnt\[2\]
*140 clk_cnt\[3\]
*141 clk_cnt\[4\]
*142 clk_cnt\[5\]
*143 clk_cnt\[6\]
*144 clk_cnt\[7\]
*145 clk_cnt\[8\]
*146 clk_cnt\[9\]
*147 clknet_0_clk
*148 clknet_2_0__leaf_clk
*149 clknet_2_1__leaf_clk
*150 clknet_2_2__leaf_clk
*151 clknet_2_3__leaf_clk
*152 data_reg\[0\]
*153 data_reg\[1\]
*154 data_reg\[2\]
*155 data_reg\[3\]
*156 data_reg\[4\]
*157 data_reg\[5\]
*158 data_reg\[6\]
*159 data_reg\[7\]
*160 net1
*161 net10
*162 net11
*163 net12
*164 net13
*165 net14
*166 net15
*167 net16
*168 net17
*169 net18
*170 net19
*171 net2
*172 net20
*173 net21
*174 net22
*175 net23
*176 net24
*177 net25
*178 net26
*179 net27
*180 net28
*181 net29
*182 net3
*183 net30
*184 net31
*185 net32
*186 net33
*187 net34
*188 net35
*189 net36
*190 net37
*191 net38
*192 net39
*193 net4
*194 net40
*195 net41
*196 net42
*197 net5
*198 net6
*199 net7
*200 net8
*201 net9
*202 parity_bit
*203 state\[0\]
*204 state\[1\]
*205 state\[2\]
*206 FILLER_0_0_102
*207 FILLER_0_0_110
*208 FILLER_0_0_113
*209 FILLER_0_0_125
*210 FILLER_0_0_13
*211 FILLER_0_0_137
*212 FILLER_0_0_141
*213 FILLER_0_0_153
*214 FILLER_0_0_165
*215 FILLER_0_0_169
*216 FILLER_0_0_181
*217 FILLER_0_0_188
*218 FILLER_0_0_197
*219 FILLER_0_0_203
*220 FILLER_0_0_207
*221 FILLER_0_0_211
*222 FILLER_0_0_221
*223 FILLER_0_0_225
*224 FILLER_0_0_241
*225 FILLER_0_0_249
*226 FILLER_0_0_25
*227 FILLER_0_0_253
*228 FILLER_0_0_265
*229 FILLER_0_0_277
*230 FILLER_0_0_281
*231 FILLER_0_0_286
*232 FILLER_0_0_29
*233 FILLER_0_0_298
*234 FILLER_0_0_41
*235 FILLER_0_0_53
*236 FILLER_0_0_57
*237 FILLER_0_0_69
*238 FILLER_0_0_81
*239 FILLER_0_0_85
*240 FILLER_0_0_90
*241 FILLER_0_10_109
*242 FILLER_0_10_121
*243 FILLER_0_10_133
*244 FILLER_0_10_139
*245 FILLER_0_10_141
*246 FILLER_0_10_15
*247 FILLER_0_10_153
*248 FILLER_0_10_157
*249 FILLER_0_10_186
*250 FILLER_0_10_263
*251 FILLER_0_10_27
*252 FILLER_0_10_275
*253 FILLER_0_10_287
*254 FILLER_0_10_29
*255 FILLER_0_10_3
*256 FILLER_0_10_41
*257 FILLER_0_10_53
*258 FILLER_0_10_65
*259 FILLER_0_10_77
*260 FILLER_0_10_83
*261 FILLER_0_10_85
*262 FILLER_0_10_97
*263 FILLER_0_11_105
*264 FILLER_0_11_111
*265 FILLER_0_11_113
*266 FILLER_0_11_125
*267 FILLER_0_11_137
*268 FILLER_0_11_15
*269 FILLER_0_11_159
*270 FILLER_0_11_167
*271 FILLER_0_11_261
*272 FILLER_0_11_27
*273 FILLER_0_11_273
*274 FILLER_0_11_279
*275 FILLER_0_11_281
*276 FILLER_0_11_293
*277 FILLER_0_11_3
*278 FILLER_0_11_39
*279 FILLER_0_11_51
*280 FILLER_0_11_55
*281 FILLER_0_11_57
*282 FILLER_0_11_69
*283 FILLER_0_11_81
*284 FILLER_0_11_93
*285 FILLER_0_12_109
*286 FILLER_0_12_121
*287 FILLER_0_12_133
*288 FILLER_0_12_139
*289 FILLER_0_12_153
*290 FILLER_0_12_165
*291 FILLER_0_12_18
*292 FILLER_0_12_191
*293 FILLER_0_12_195
*294 FILLER_0_12_197
*295 FILLER_0_12_211
*296 FILLER_0_12_247
*297 FILLER_0_12_251
*298 FILLER_0_12_257
*299 FILLER_0_12_26
*300 FILLER_0_12_269
*301 FILLER_0_12_281
*302 FILLER_0_12_29
*303 FILLER_0_12_293
*304 FILLER_0_12_41
*305 FILLER_0_12_53
*306 FILLER_0_12_6
*307 FILLER_0_12_65
*308 FILLER_0_12_77
*309 FILLER_0_12_83
*310 FILLER_0_12_85
*311 FILLER_0_12_97
*312 FILLER_0_13_105
*313 FILLER_0_13_111
*314 FILLER_0_13_113
*315 FILLER_0_13_125
*316 FILLER_0_13_137
*317 FILLER_0_13_15
*318 FILLER_0_13_153
*319 FILLER_0_13_161
*320 FILLER_0_13_167
*321 FILLER_0_13_169
*322 FILLER_0_13_191
*323 FILLER_0_13_195
*324 FILLER_0_13_219
*325 FILLER_0_13_223
*326 FILLER_0_13_225
*327 FILLER_0_13_246
*328 FILLER_0_13_258
*329 FILLER_0_13_27
*330 FILLER_0_13_270
*331 FILLER_0_13_278
*332 FILLER_0_13_281
*333 FILLER_0_13_293
*334 FILLER_0_13_3
*335 FILLER_0_13_39
*336 FILLER_0_13_51
*337 FILLER_0_13_55
*338 FILLER_0_13_57
*339 FILLER_0_13_69
*340 FILLER_0_13_81
*341 FILLER_0_13_93
*342 FILLER_0_14_109
*343 FILLER_0_14_121
*344 FILLER_0_14_133
*345 FILLER_0_14_139
*346 FILLER_0_14_15
*347 FILLER_0_14_169
*348 FILLER_0_14_192
*349 FILLER_0_14_197
*350 FILLER_0_14_203
*351 FILLER_0_14_212
*352 FILLER_0_14_228
*353 FILLER_0_14_253
*354 FILLER_0_14_265
*355 FILLER_0_14_27
*356 FILLER_0_14_277
*357 FILLER_0_14_289
*358 FILLER_0_14_29
*359 FILLER_0_14_297
*360 FILLER_0_14_3
*361 FILLER_0_14_41
*362 FILLER_0_14_53
*363 FILLER_0_14_65
*364 FILLER_0_14_77
*365 FILLER_0_14_83
*366 FILLER_0_14_85
*367 FILLER_0_14_97
*368 FILLER_0_15_105
*369 FILLER_0_15_111
*370 FILLER_0_15_113
*371 FILLER_0_15_125
*372 FILLER_0_15_137
*373 FILLER_0_15_141
*374 FILLER_0_15_15
*375 FILLER_0_15_162
*376 FILLER_0_15_211
*377 FILLER_0_15_222
*378 FILLER_0_15_233
*379 FILLER_0_15_257
*380 FILLER_0_15_269
*381 FILLER_0_15_27
*382 FILLER_0_15_277
*383 FILLER_0_15_281
*384 FILLER_0_15_293
*385 FILLER_0_15_3
*386 FILLER_0_15_39
*387 FILLER_0_15_51
*388 FILLER_0_15_55
*389 FILLER_0_15_57
*390 FILLER_0_15_69
*391 FILLER_0_15_81
*392 FILLER_0_15_93
*393 FILLER_0_16_109
*394 FILLER_0_16_121
*395 FILLER_0_16_141
*396 FILLER_0_16_15
*397 FILLER_0_16_162
*398 FILLER_0_16_184
*399 FILLER_0_16_214
*400 FILLER_0_16_236
*401 FILLER_0_16_248
*402 FILLER_0_16_253
*403 FILLER_0_16_265
*404 FILLER_0_16_27
*405 FILLER_0_16_277
*406 FILLER_0_16_289
*407 FILLER_0_16_29
*408 FILLER_0_16_297
*409 FILLER_0_16_3
*410 FILLER_0_16_41
*411 FILLER_0_16_53
*412 FILLER_0_16_65
*413 FILLER_0_16_77
*414 FILLER_0_16_83
*415 FILLER_0_16_85
*416 FILLER_0_16_97
*417 FILLER_0_17_105
*418 FILLER_0_17_111
*419 FILLER_0_17_113
*420 FILLER_0_17_125
*421 FILLER_0_17_137
*422 FILLER_0_17_143
*423 FILLER_0_17_15
*424 FILLER_0_17_164
*425 FILLER_0_17_169
*426 FILLER_0_17_202
*427 FILLER_0_17_225
*428 FILLER_0_17_237
*429 FILLER_0_17_249
*430 FILLER_0_17_261
*431 FILLER_0_17_27
*432 FILLER_0_17_273
*433 FILLER_0_17_279
*434 FILLER_0_17_281
*435 FILLER_0_17_293
*436 FILLER_0_17_3
*437 FILLER_0_17_39
*438 FILLER_0_17_51
*439 FILLER_0_17_55
*440 FILLER_0_17_57
*441 FILLER_0_17_69
*442 FILLER_0_17_81
*443 FILLER_0_17_93
*444 FILLER_0_18_109
*445 FILLER_0_18_121
*446 FILLER_0_18_133
*447 FILLER_0_18_139
*448 FILLER_0_18_141
*449 FILLER_0_18_149
*450 FILLER_0_18_15
*451 FILLER_0_18_153
*452 FILLER_0_18_157
*453 FILLER_0_18_178
*454 FILLER_0_18_186
*455 FILLER_0_18_194
*456 FILLER_0_18_197
*457 FILLER_0_18_209
*458 FILLER_0_18_221
*459 FILLER_0_18_233
*460 FILLER_0_18_245
*461 FILLER_0_18_251
*462 FILLER_0_18_253
*463 FILLER_0_18_265
*464 FILLER_0_18_27
*465 FILLER_0_18_277
*466 FILLER_0_18_289
*467 FILLER_0_18_29
*468 FILLER_0_18_297
*469 FILLER_0_18_3
*470 FILLER_0_18_41
*471 FILLER_0_18_53
*472 FILLER_0_18_65
*473 FILLER_0_18_77
*474 FILLER_0_18_83
*475 FILLER_0_18_85
*476 FILLER_0_18_97
*477 FILLER_0_19_105
*478 FILLER_0_19_111
*479 FILLER_0_19_113
*480 FILLER_0_19_125
*481 FILLER_0_19_137
*482 FILLER_0_19_149
*483 FILLER_0_19_15
*484 FILLER_0_19_155
*485 FILLER_0_19_200
*486 FILLER_0_19_212
*487 FILLER_0_19_225
*488 FILLER_0_19_237
*489 FILLER_0_19_249
*490 FILLER_0_19_261
*491 FILLER_0_19_27
*492 FILLER_0_19_273
*493 FILLER_0_19_279
*494 FILLER_0_19_281
*495 FILLER_0_19_293
*496 FILLER_0_19_3
*497 FILLER_0_19_39
*498 FILLER_0_19_51
*499 FILLER_0_19_55
*500 FILLER_0_19_57
*501 FILLER_0_19_69
*502 FILLER_0_19_81
*503 FILLER_0_19_93
*504 FILLER_0_1_105
*505 FILLER_0_1_111
*506 FILLER_0_1_113
*507 FILLER_0_1_125
*508 FILLER_0_1_137
*509 FILLER_0_1_149
*510 FILLER_0_1_15
*511 FILLER_0_1_161
*512 FILLER_0_1_167
*513 FILLER_0_1_169
*514 FILLER_0_1_178
*515 FILLER_0_1_223
*516 FILLER_0_1_253
*517 FILLER_0_1_265
*518 FILLER_0_1_27
*519 FILLER_0_1_277
*520 FILLER_0_1_281
*521 FILLER_0_1_293
*522 FILLER_0_1_3
*523 FILLER_0_1_39
*524 FILLER_0_1_51
*525 FILLER_0_1_55
*526 FILLER_0_1_57
*527 FILLER_0_1_69
*528 FILLER_0_1_81
*529 FILLER_0_1_93
*530 FILLER_0_20_109
*531 FILLER_0_20_121
*532 FILLER_0_20_133
*533 FILLER_0_20_139
*534 FILLER_0_20_141
*535 FILLER_0_20_15
*536 FILLER_0_20_153
*537 FILLER_0_20_161
*538 FILLER_0_20_170
*539 FILLER_0_20_182
*540 FILLER_0_20_194
*541 FILLER_0_20_197
*542 FILLER_0_20_209
*543 FILLER_0_20_221
*544 FILLER_0_20_233
*545 FILLER_0_20_245
*546 FILLER_0_20_251
*547 FILLER_0_20_253
*548 FILLER_0_20_265
*549 FILLER_0_20_27
*550 FILLER_0_20_277
*551 FILLER_0_20_289
*552 FILLER_0_20_29
*553 FILLER_0_20_297
*554 FILLER_0_20_3
*555 FILLER_0_20_41
*556 FILLER_0_20_53
*557 FILLER_0_20_65
*558 FILLER_0_20_77
*559 FILLER_0_20_83
*560 FILLER_0_20_85
*561 FILLER_0_20_97
*562 FILLER_0_21_105
*563 FILLER_0_21_111
*564 FILLER_0_21_113
*565 FILLER_0_21_125
*566 FILLER_0_21_137
*567 FILLER_0_21_149
*568 FILLER_0_21_15
*569 FILLER_0_21_161
*570 FILLER_0_21_167
*571 FILLER_0_21_169
*572 FILLER_0_21_181
*573 FILLER_0_21_193
*574 FILLER_0_21_205
*575 FILLER_0_21_217
*576 FILLER_0_21_223
*577 FILLER_0_21_225
*578 FILLER_0_21_237
*579 FILLER_0_21_249
*580 FILLER_0_21_261
*581 FILLER_0_21_27
*582 FILLER_0_21_273
*583 FILLER_0_21_279
*584 FILLER_0_21_281
*585 FILLER_0_21_293
*586 FILLER_0_21_3
*587 FILLER_0_21_39
*588 FILLER_0_21_51
*589 FILLER_0_21_55
*590 FILLER_0_21_57
*591 FILLER_0_21_69
*592 FILLER_0_21_81
*593 FILLER_0_21_93
*594 FILLER_0_22_109
*595 FILLER_0_22_121
*596 FILLER_0_22_133
*597 FILLER_0_22_139
*598 FILLER_0_22_141
*599 FILLER_0_22_15
*600 FILLER_0_22_153
*601 FILLER_0_22_165
*602 FILLER_0_22_177
*603 FILLER_0_22_189
*604 FILLER_0_22_195
*605 FILLER_0_22_197
*606 FILLER_0_22_209
*607 FILLER_0_22_221
*608 FILLER_0_22_233
*609 FILLER_0_22_245
*610 FILLER_0_22_251
*611 FILLER_0_22_253
*612 FILLER_0_22_265
*613 FILLER_0_22_27
*614 FILLER_0_22_277
*615 FILLER_0_22_289
*616 FILLER_0_22_29
*617 FILLER_0_22_297
*618 FILLER_0_22_3
*619 FILLER_0_22_41
*620 FILLER_0_22_53
*621 FILLER_0_22_65
*622 FILLER_0_22_77
*623 FILLER_0_22_83
*624 FILLER_0_22_85
*625 FILLER_0_22_97
*626 FILLER_0_23_105
*627 FILLER_0_23_111
*628 FILLER_0_23_113
*629 FILLER_0_23_125
*630 FILLER_0_23_137
*631 FILLER_0_23_149
*632 FILLER_0_23_15
*633 FILLER_0_23_161
*634 FILLER_0_23_167
*635 FILLER_0_23_169
*636 FILLER_0_23_181
*637 FILLER_0_23_193
*638 FILLER_0_23_205
*639 FILLER_0_23_217
*640 FILLER_0_23_223
*641 FILLER_0_23_225
*642 FILLER_0_23_237
*643 FILLER_0_23_249
*644 FILLER_0_23_261
*645 FILLER_0_23_27
*646 FILLER_0_23_273
*647 FILLER_0_23_279
*648 FILLER_0_23_281
*649 FILLER_0_23_293
*650 FILLER_0_23_3
*651 FILLER_0_23_39
*652 FILLER_0_23_51
*653 FILLER_0_23_55
*654 FILLER_0_23_57
*655 FILLER_0_23_69
*656 FILLER_0_23_81
*657 FILLER_0_23_93
*658 FILLER_0_24_109
*659 FILLER_0_24_121
*660 FILLER_0_24_133
*661 FILLER_0_24_139
*662 FILLER_0_24_141
*663 FILLER_0_24_15
*664 FILLER_0_24_153
*665 FILLER_0_24_165
*666 FILLER_0_24_177
*667 FILLER_0_24_189
*668 FILLER_0_24_195
*669 FILLER_0_24_197
*670 FILLER_0_24_209
*671 FILLER_0_24_221
*672 FILLER_0_24_233
*673 FILLER_0_24_245
*674 FILLER_0_24_251
*675 FILLER_0_24_253
*676 FILLER_0_24_265
*677 FILLER_0_24_27
*678 FILLER_0_24_277
*679 FILLER_0_24_289
*680 FILLER_0_24_29
*681 FILLER_0_24_297
*682 FILLER_0_24_3
*683 FILLER_0_24_41
*684 FILLER_0_24_53
*685 FILLER_0_24_65
*686 FILLER_0_24_77
*687 FILLER_0_24_83
*688 FILLER_0_24_85
*689 FILLER_0_24_97
*690 FILLER_0_25_105
*691 FILLER_0_25_111
*692 FILLER_0_25_113
*693 FILLER_0_25_125
*694 FILLER_0_25_137
*695 FILLER_0_25_149
*696 FILLER_0_25_15
*697 FILLER_0_25_161
*698 FILLER_0_25_167
*699 FILLER_0_25_169
*700 FILLER_0_25_181
*701 FILLER_0_25_193
*702 FILLER_0_25_205
*703 FILLER_0_25_217
*704 FILLER_0_25_223
*705 FILLER_0_25_225
*706 FILLER_0_25_237
*707 FILLER_0_25_249
*708 FILLER_0_25_261
*709 FILLER_0_25_27
*710 FILLER_0_25_273
*711 FILLER_0_25_279
*712 FILLER_0_25_281
*713 FILLER_0_25_293
*714 FILLER_0_25_3
*715 FILLER_0_25_39
*716 FILLER_0_25_51
*717 FILLER_0_25_55
*718 FILLER_0_25_57
*719 FILLER_0_25_69
*720 FILLER_0_25_81
*721 FILLER_0_25_93
*722 FILLER_0_26_109
*723 FILLER_0_26_121
*724 FILLER_0_26_133
*725 FILLER_0_26_139
*726 FILLER_0_26_141
*727 FILLER_0_26_15
*728 FILLER_0_26_153
*729 FILLER_0_26_165
*730 FILLER_0_26_177
*731 FILLER_0_26_189
*732 FILLER_0_26_195
*733 FILLER_0_26_197
*734 FILLER_0_26_209
*735 FILLER_0_26_221
*736 FILLER_0_26_233
*737 FILLER_0_26_245
*738 FILLER_0_26_251
*739 FILLER_0_26_253
*740 FILLER_0_26_265
*741 FILLER_0_26_27
*742 FILLER_0_26_277
*743 FILLER_0_26_289
*744 FILLER_0_26_29
*745 FILLER_0_26_297
*746 FILLER_0_26_3
*747 FILLER_0_26_41
*748 FILLER_0_26_53
*749 FILLER_0_26_65
*750 FILLER_0_26_77
*751 FILLER_0_26_83
*752 FILLER_0_26_85
*753 FILLER_0_26_97
*754 FILLER_0_27_105
*755 FILLER_0_27_111
*756 FILLER_0_27_113
*757 FILLER_0_27_125
*758 FILLER_0_27_137
*759 FILLER_0_27_149
*760 FILLER_0_27_15
*761 FILLER_0_27_161
*762 FILLER_0_27_167
*763 FILLER_0_27_169
*764 FILLER_0_27_181
*765 FILLER_0_27_193
*766 FILLER_0_27_205
*767 FILLER_0_27_217
*768 FILLER_0_27_223
*769 FILLER_0_27_225
*770 FILLER_0_27_237
*771 FILLER_0_27_249
*772 FILLER_0_27_261
*773 FILLER_0_27_27
*774 FILLER_0_27_273
*775 FILLER_0_27_279
*776 FILLER_0_27_281
*777 FILLER_0_27_293
*778 FILLER_0_27_3
*779 FILLER_0_27_39
*780 FILLER_0_27_51
*781 FILLER_0_27_55
*782 FILLER_0_27_57
*783 FILLER_0_27_69
*784 FILLER_0_27_81
*785 FILLER_0_27_93
*786 FILLER_0_28_109
*787 FILLER_0_28_121
*788 FILLER_0_28_133
*789 FILLER_0_28_139
*790 FILLER_0_28_141
*791 FILLER_0_28_15
*792 FILLER_0_28_153
*793 FILLER_0_28_165
*794 FILLER_0_28_177
*795 FILLER_0_28_189
*796 FILLER_0_28_195
*797 FILLER_0_28_197
*798 FILLER_0_28_209
*799 FILLER_0_28_221
*800 FILLER_0_28_233
*801 FILLER_0_28_245
*802 FILLER_0_28_251
*803 FILLER_0_28_253
*804 FILLER_0_28_265
*805 FILLER_0_28_27
*806 FILLER_0_28_277
*807 FILLER_0_28_289
*808 FILLER_0_28_29
*809 FILLER_0_28_297
*810 FILLER_0_28_3
*811 FILLER_0_28_41
*812 FILLER_0_28_53
*813 FILLER_0_28_65
*814 FILLER_0_28_77
*815 FILLER_0_28_83
*816 FILLER_0_28_85
*817 FILLER_0_28_97
*818 FILLER_0_29_105
*819 FILLER_0_29_111
*820 FILLER_0_29_113
*821 FILLER_0_29_125
*822 FILLER_0_29_137
*823 FILLER_0_29_149
*824 FILLER_0_29_15
*825 FILLER_0_29_161
*826 FILLER_0_29_167
*827 FILLER_0_29_169
*828 FILLER_0_29_181
*829 FILLER_0_29_193
*830 FILLER_0_29_205
*831 FILLER_0_29_217
*832 FILLER_0_29_223
*833 FILLER_0_29_225
*834 FILLER_0_29_237
*835 FILLER_0_29_249
*836 FILLER_0_29_261
*837 FILLER_0_29_27
*838 FILLER_0_29_273
*839 FILLER_0_29_279
*840 FILLER_0_29_281
*841 FILLER_0_29_293
*842 FILLER_0_29_3
*843 FILLER_0_29_39
*844 FILLER_0_29_51
*845 FILLER_0_29_55
*846 FILLER_0_29_57
*847 FILLER_0_29_69
*848 FILLER_0_29_81
*849 FILLER_0_29_93
*850 FILLER_0_2_109
*851 FILLER_0_2_121
*852 FILLER_0_2_133
*853 FILLER_0_2_139
*854 FILLER_0_2_141
*855 FILLER_0_2_15
*856 FILLER_0_2_153
*857 FILLER_0_2_165
*858 FILLER_0_2_194
*859 FILLER_0_2_245
*860 FILLER_0_2_251
*861 FILLER_0_2_27
*862 FILLER_0_2_273
*863 FILLER_0_2_285
*864 FILLER_0_2_29
*865 FILLER_0_2_297
*866 FILLER_0_2_3
*867 FILLER_0_2_41
*868 FILLER_0_2_53
*869 FILLER_0_2_65
*870 FILLER_0_2_77
*871 FILLER_0_2_83
*872 FILLER_0_2_85
*873 FILLER_0_2_97
*874 FILLER_0_30_109
*875 FILLER_0_30_121
*876 FILLER_0_30_13
*877 FILLER_0_30_133
*878 FILLER_0_30_139
*879 FILLER_0_30_141
*880 FILLER_0_30_153
*881 FILLER_0_30_165
*882 FILLER_0_30_177
*883 FILLER_0_30_189
*884 FILLER_0_30_195
*885 FILLER_0_30_197
*886 FILLER_0_30_209
*887 FILLER_0_30_221
*888 FILLER_0_30_233
*889 FILLER_0_30_245
*890 FILLER_0_30_25
*891 FILLER_0_30_251
*892 FILLER_0_30_253
*893 FILLER_0_30_265
*894 FILLER_0_30_277
*895 FILLER_0_30_289
*896 FILLER_0_30_29
*897 FILLER_0_30_297
*898 FILLER_0_30_41
*899 FILLER_0_30_53
*900 FILLER_0_30_65
*901 FILLER_0_30_77
*902 FILLER_0_30_83
*903 FILLER_0_30_85
*904 FILLER_0_30_97
*905 FILLER_0_31_105
*906 FILLER_0_31_111
*907 FILLER_0_31_113
*908 FILLER_0_31_125
*909 FILLER_0_31_137
*910 FILLER_0_31_149
*911 FILLER_0_31_15
*912 FILLER_0_31_161
*913 FILLER_0_31_167
*914 FILLER_0_31_169
*915 FILLER_0_31_181
*916 FILLER_0_31_193
*917 FILLER_0_31_205
*918 FILLER_0_31_217
*919 FILLER_0_31_223
*920 FILLER_0_31_225
*921 FILLER_0_31_237
*922 FILLER_0_31_249
*923 FILLER_0_31_261
*924 FILLER_0_31_27
*925 FILLER_0_31_273
*926 FILLER_0_31_279
*927 FILLER_0_31_281
*928 FILLER_0_31_293
*929 FILLER_0_31_3
*930 FILLER_0_31_39
*931 FILLER_0_31_51
*932 FILLER_0_31_55
*933 FILLER_0_31_57
*934 FILLER_0_31_69
*935 FILLER_0_31_81
*936 FILLER_0_31_93
*937 FILLER_0_32_109
*938 FILLER_0_32_121
*939 FILLER_0_32_133
*940 FILLER_0_32_139
*941 FILLER_0_32_141
*942 FILLER_0_32_15
*943 FILLER_0_32_153
*944 FILLER_0_32_165
*945 FILLER_0_32_177
*946 FILLER_0_32_189
*947 FILLER_0_32_195
*948 FILLER_0_32_197
*949 FILLER_0_32_209
*950 FILLER_0_32_221
*951 FILLER_0_32_233
*952 FILLER_0_32_245
*953 FILLER_0_32_251
*954 FILLER_0_32_253
*955 FILLER_0_32_265
*956 FILLER_0_32_27
*957 FILLER_0_32_277
*958 FILLER_0_32_289
*959 FILLER_0_32_29
*960 FILLER_0_32_297
*961 FILLER_0_32_3
*962 FILLER_0_32_41
*963 FILLER_0_32_53
*964 FILLER_0_32_65
*965 FILLER_0_32_77
*966 FILLER_0_32_83
*967 FILLER_0_32_85
*968 FILLER_0_32_97
*969 FILLER_0_33_105
*970 FILLER_0_33_111
*971 FILLER_0_33_113
*972 FILLER_0_33_125
*973 FILLER_0_33_137
*974 FILLER_0_33_149
*975 FILLER_0_33_15
*976 FILLER_0_33_161
*977 FILLER_0_33_167
*978 FILLER_0_33_169
*979 FILLER_0_33_181
*980 FILLER_0_33_193
*981 FILLER_0_33_205
*982 FILLER_0_33_217
*983 FILLER_0_33_223
*984 FILLER_0_33_225
*985 FILLER_0_33_237
*986 FILLER_0_33_249
*987 FILLER_0_33_261
*988 FILLER_0_33_27
*989 FILLER_0_33_273
*990 FILLER_0_33_279
*991 FILLER_0_33_281
*992 FILLER_0_33_293
*993 FILLER_0_33_3
*994 FILLER_0_33_39
*995 FILLER_0_33_51
*996 FILLER_0_33_55
*997 FILLER_0_33_57
*998 FILLER_0_33_69
*999 FILLER_0_33_81
*1000 FILLER_0_33_93
*1001 FILLER_0_34_109
*1002 FILLER_0_34_121
*1003 FILLER_0_34_133
*1004 FILLER_0_34_139
*1005 FILLER_0_34_141
*1006 FILLER_0_34_15
*1007 FILLER_0_34_153
*1008 FILLER_0_34_165
*1009 FILLER_0_34_177
*1010 FILLER_0_34_189
*1011 FILLER_0_34_195
*1012 FILLER_0_34_197
*1013 FILLER_0_34_209
*1014 FILLER_0_34_221
*1015 FILLER_0_34_233
*1016 FILLER_0_34_245
*1017 FILLER_0_34_251
*1018 FILLER_0_34_253
*1019 FILLER_0_34_265
*1020 FILLER_0_34_27
*1021 FILLER_0_34_277
*1022 FILLER_0_34_289
*1023 FILLER_0_34_29
*1024 FILLER_0_34_297
*1025 FILLER_0_34_3
*1026 FILLER_0_34_41
*1027 FILLER_0_34_53
*1028 FILLER_0_34_65
*1029 FILLER_0_34_77
*1030 FILLER_0_34_83
*1031 FILLER_0_34_85
*1032 FILLER_0_34_97
*1033 FILLER_0_35_105
*1034 FILLER_0_35_111
*1035 FILLER_0_35_113
*1036 FILLER_0_35_125
*1037 FILLER_0_35_137
*1038 FILLER_0_35_149
*1039 FILLER_0_35_15
*1040 FILLER_0_35_161
*1041 FILLER_0_35_167
*1042 FILLER_0_35_169
*1043 FILLER_0_35_181
*1044 FILLER_0_35_193
*1045 FILLER_0_35_205
*1046 FILLER_0_35_217
*1047 FILLER_0_35_223
*1048 FILLER_0_35_225
*1049 FILLER_0_35_237
*1050 FILLER_0_35_249
*1051 FILLER_0_35_261
*1052 FILLER_0_35_27
*1053 FILLER_0_35_273
*1054 FILLER_0_35_279
*1055 FILLER_0_35_281
*1056 FILLER_0_35_293
*1057 FILLER_0_35_3
*1058 FILLER_0_35_39
*1059 FILLER_0_35_51
*1060 FILLER_0_35_55
*1061 FILLER_0_35_57
*1062 FILLER_0_35_69
*1063 FILLER_0_35_81
*1064 FILLER_0_35_93
*1065 FILLER_0_36_109
*1066 FILLER_0_36_121
*1067 FILLER_0_36_133
*1068 FILLER_0_36_139
*1069 FILLER_0_36_141
*1070 FILLER_0_36_15
*1071 FILLER_0_36_153
*1072 FILLER_0_36_165
*1073 FILLER_0_36_177
*1074 FILLER_0_36_189
*1075 FILLER_0_36_195
*1076 FILLER_0_36_197
*1077 FILLER_0_36_209
*1078 FILLER_0_36_221
*1079 FILLER_0_36_233
*1080 FILLER_0_36_245
*1081 FILLER_0_36_251
*1082 FILLER_0_36_253
*1083 FILLER_0_36_265
*1084 FILLER_0_36_27
*1085 FILLER_0_36_277
*1086 FILLER_0_36_289
*1087 FILLER_0_36_29
*1088 FILLER_0_36_297
*1089 FILLER_0_36_3
*1090 FILLER_0_36_41
*1091 FILLER_0_36_53
*1092 FILLER_0_36_65
*1093 FILLER_0_36_77
*1094 FILLER_0_36_83
*1095 FILLER_0_36_85
*1096 FILLER_0_36_97
*1097 FILLER_0_37_105
*1098 FILLER_0_37_111
*1099 FILLER_0_37_113
*1100 FILLER_0_37_125
*1101 FILLER_0_37_137
*1102 FILLER_0_37_149
*1103 FILLER_0_37_15
*1104 FILLER_0_37_161
*1105 FILLER_0_37_167
*1106 FILLER_0_37_169
*1107 FILLER_0_37_181
*1108 FILLER_0_37_193
*1109 FILLER_0_37_205
*1110 FILLER_0_37_217
*1111 FILLER_0_37_223
*1112 FILLER_0_37_225
*1113 FILLER_0_37_237
*1114 FILLER_0_37_249
*1115 FILLER_0_37_261
*1116 FILLER_0_37_27
*1117 FILLER_0_37_273
*1118 FILLER_0_37_279
*1119 FILLER_0_37_281
*1120 FILLER_0_37_293
*1121 FILLER_0_37_3
*1122 FILLER_0_37_39
*1123 FILLER_0_37_51
*1124 FILLER_0_37_55
*1125 FILLER_0_37_57
*1126 FILLER_0_37_69
*1127 FILLER_0_37_81
*1128 FILLER_0_37_93
*1129 FILLER_0_38_109
*1130 FILLER_0_38_121
*1131 FILLER_0_38_133
*1132 FILLER_0_38_139
*1133 FILLER_0_38_141
*1134 FILLER_0_38_15
*1135 FILLER_0_38_153
*1136 FILLER_0_38_165
*1137 FILLER_0_38_177
*1138 FILLER_0_38_189
*1139 FILLER_0_38_195
*1140 FILLER_0_38_197
*1141 FILLER_0_38_209
*1142 FILLER_0_38_221
*1143 FILLER_0_38_233
*1144 FILLER_0_38_245
*1145 FILLER_0_38_251
*1146 FILLER_0_38_253
*1147 FILLER_0_38_265
*1148 FILLER_0_38_27
*1149 FILLER_0_38_277
*1150 FILLER_0_38_289
*1151 FILLER_0_38_29
*1152 FILLER_0_38_297
*1153 FILLER_0_38_3
*1154 FILLER_0_38_41
*1155 FILLER_0_38_53
*1156 FILLER_0_38_65
*1157 FILLER_0_38_77
*1158 FILLER_0_38_83
*1159 FILLER_0_38_85
*1160 FILLER_0_38_97
*1161 FILLER_0_39_105
*1162 FILLER_0_39_111
*1163 FILLER_0_39_113
*1164 FILLER_0_39_125
*1165 FILLER_0_39_137
*1166 FILLER_0_39_149
*1167 FILLER_0_39_15
*1168 FILLER_0_39_161
*1169 FILLER_0_39_167
*1170 FILLER_0_39_169
*1171 FILLER_0_39_181
*1172 FILLER_0_39_193
*1173 FILLER_0_39_205
*1174 FILLER_0_39_217
*1175 FILLER_0_39_223
*1176 FILLER_0_39_225
*1177 FILLER_0_39_237
*1178 FILLER_0_39_249
*1179 FILLER_0_39_261
*1180 FILLER_0_39_27
*1181 FILLER_0_39_273
*1182 FILLER_0_39_279
*1183 FILLER_0_39_281
*1184 FILLER_0_39_293
*1185 FILLER_0_39_3
*1186 FILLER_0_39_39
*1187 FILLER_0_39_51
*1188 FILLER_0_39_55
*1189 FILLER_0_39_57
*1190 FILLER_0_39_69
*1191 FILLER_0_39_81
*1192 FILLER_0_39_93
*1193 FILLER_0_3_105
*1194 FILLER_0_3_111
*1195 FILLER_0_3_113
*1196 FILLER_0_3_125
*1197 FILLER_0_3_137
*1198 FILLER_0_3_149
*1199 FILLER_0_3_15
*1200 FILLER_0_3_161
*1201 FILLER_0_3_169
*1202 FILLER_0_3_185
*1203 FILLER_0_3_202
*1204 FILLER_0_3_223
*1205 FILLER_0_3_254
*1206 FILLER_0_3_258
*1207 FILLER_0_3_267
*1208 FILLER_0_3_27
*1209 FILLER_0_3_279
*1210 FILLER_0_3_281
*1211 FILLER_0_3_293
*1212 FILLER_0_3_3
*1213 FILLER_0_3_39
*1214 FILLER_0_3_51
*1215 FILLER_0_3_55
*1216 FILLER_0_3_57
*1217 FILLER_0_3_69
*1218 FILLER_0_3_81
*1219 FILLER_0_3_93
*1220 FILLER_0_40_109
*1221 FILLER_0_40_121
*1222 FILLER_0_40_133
*1223 FILLER_0_40_139
*1224 FILLER_0_40_141
*1225 FILLER_0_40_15
*1226 FILLER_0_40_153
*1227 FILLER_0_40_165
*1228 FILLER_0_40_177
*1229 FILLER_0_40_189
*1230 FILLER_0_40_195
*1231 FILLER_0_40_197
*1232 FILLER_0_40_209
*1233 FILLER_0_40_221
*1234 FILLER_0_40_233
*1235 FILLER_0_40_245
*1236 FILLER_0_40_251
*1237 FILLER_0_40_253
*1238 FILLER_0_40_265
*1239 FILLER_0_40_27
*1240 FILLER_0_40_277
*1241 FILLER_0_40_289
*1242 FILLER_0_40_29
*1243 FILLER_0_40_297
*1244 FILLER_0_40_3
*1245 FILLER_0_40_41
*1246 FILLER_0_40_53
*1247 FILLER_0_40_65
*1248 FILLER_0_40_77
*1249 FILLER_0_40_83
*1250 FILLER_0_40_85
*1251 FILLER_0_40_97
*1252 FILLER_0_41_105
*1253 FILLER_0_41_111
*1254 FILLER_0_41_113
*1255 FILLER_0_41_125
*1256 FILLER_0_41_137
*1257 FILLER_0_41_149
*1258 FILLER_0_41_15
*1259 FILLER_0_41_161
*1260 FILLER_0_41_167
*1261 FILLER_0_41_169
*1262 FILLER_0_41_181
*1263 FILLER_0_41_193
*1264 FILLER_0_41_205
*1265 FILLER_0_41_217
*1266 FILLER_0_41_223
*1267 FILLER_0_41_225
*1268 FILLER_0_41_237
*1269 FILLER_0_41_249
*1270 FILLER_0_41_261
*1271 FILLER_0_41_27
*1272 FILLER_0_41_273
*1273 FILLER_0_41_279
*1274 FILLER_0_41_281
*1275 FILLER_0_41_293
*1276 FILLER_0_41_3
*1277 FILLER_0_41_39
*1278 FILLER_0_41_51
*1279 FILLER_0_41_55
*1280 FILLER_0_41_57
*1281 FILLER_0_41_69
*1282 FILLER_0_41_81
*1283 FILLER_0_41_93
*1284 FILLER_0_42_109
*1285 FILLER_0_42_121
*1286 FILLER_0_42_133
*1287 FILLER_0_42_139
*1288 FILLER_0_42_141
*1289 FILLER_0_42_15
*1290 FILLER_0_42_153
*1291 FILLER_0_42_165
*1292 FILLER_0_42_177
*1293 FILLER_0_42_189
*1294 FILLER_0_42_195
*1295 FILLER_0_42_197
*1296 FILLER_0_42_209
*1297 FILLER_0_42_221
*1298 FILLER_0_42_233
*1299 FILLER_0_42_245
*1300 FILLER_0_42_251
*1301 FILLER_0_42_253
*1302 FILLER_0_42_265
*1303 FILLER_0_42_27
*1304 FILLER_0_42_277
*1305 FILLER_0_42_29
*1306 FILLER_0_42_3
*1307 FILLER_0_42_41
*1308 FILLER_0_42_53
*1309 FILLER_0_42_65
*1310 FILLER_0_42_77
*1311 FILLER_0_42_83
*1312 FILLER_0_42_85
*1313 FILLER_0_42_97
*1314 FILLER_0_43_105
*1315 FILLER_0_43_111
*1316 FILLER_0_43_113
*1317 FILLER_0_43_125
*1318 FILLER_0_43_137
*1319 FILLER_0_43_149
*1320 FILLER_0_43_15
*1321 FILLER_0_43_161
*1322 FILLER_0_43_167
*1323 FILLER_0_43_169
*1324 FILLER_0_43_181
*1325 FILLER_0_43_193
*1326 FILLER_0_43_205
*1327 FILLER_0_43_217
*1328 FILLER_0_43_223
*1329 FILLER_0_43_225
*1330 FILLER_0_43_237
*1331 FILLER_0_43_249
*1332 FILLER_0_43_261
*1333 FILLER_0_43_27
*1334 FILLER_0_43_273
*1335 FILLER_0_43_279
*1336 FILLER_0_43_281
*1337 FILLER_0_43_293
*1338 FILLER_0_43_3
*1339 FILLER_0_43_39
*1340 FILLER_0_43_51
*1341 FILLER_0_43_55
*1342 FILLER_0_43_57
*1343 FILLER_0_43_69
*1344 FILLER_0_43_81
*1345 FILLER_0_43_93
*1346 FILLER_0_44_109
*1347 FILLER_0_44_121
*1348 FILLER_0_44_133
*1349 FILLER_0_44_139
*1350 FILLER_0_44_141
*1351 FILLER_0_44_15
*1352 FILLER_0_44_153
*1353 FILLER_0_44_165
*1354 FILLER_0_44_177
*1355 FILLER_0_44_189
*1356 FILLER_0_44_195
*1357 FILLER_0_44_197
*1358 FILLER_0_44_209
*1359 FILLER_0_44_221
*1360 FILLER_0_44_233
*1361 FILLER_0_44_245
*1362 FILLER_0_44_251
*1363 FILLER_0_44_253
*1364 FILLER_0_44_265
*1365 FILLER_0_44_27
*1366 FILLER_0_44_277
*1367 FILLER_0_44_289
*1368 FILLER_0_44_29
*1369 FILLER_0_44_297
*1370 FILLER_0_44_3
*1371 FILLER_0_44_41
*1372 FILLER_0_44_53
*1373 FILLER_0_44_65
*1374 FILLER_0_44_77
*1375 FILLER_0_44_83
*1376 FILLER_0_44_85
*1377 FILLER_0_44_97
*1378 FILLER_0_45_105
*1379 FILLER_0_45_111
*1380 FILLER_0_45_113
*1381 FILLER_0_45_125
*1382 FILLER_0_45_137
*1383 FILLER_0_45_149
*1384 FILLER_0_45_15
*1385 FILLER_0_45_161
*1386 FILLER_0_45_167
*1387 FILLER_0_45_169
*1388 FILLER_0_45_181
*1389 FILLER_0_45_193
*1390 FILLER_0_45_205
*1391 FILLER_0_45_217
*1392 FILLER_0_45_223
*1393 FILLER_0_45_225
*1394 FILLER_0_45_237
*1395 FILLER_0_45_249
*1396 FILLER_0_45_261
*1397 FILLER_0_45_27
*1398 FILLER_0_45_273
*1399 FILLER_0_45_279
*1400 FILLER_0_45_281
*1401 FILLER_0_45_293
*1402 FILLER_0_45_3
*1403 FILLER_0_45_39
*1404 FILLER_0_45_51
*1405 FILLER_0_45_55
*1406 FILLER_0_45_57
*1407 FILLER_0_45_69
*1408 FILLER_0_45_81
*1409 FILLER_0_45_93
*1410 FILLER_0_46_109
*1411 FILLER_0_46_113
*1412 FILLER_0_46_125
*1413 FILLER_0_46_137
*1414 FILLER_0_46_141
*1415 FILLER_0_46_153
*1416 FILLER_0_46_161
*1417 FILLER_0_46_167
*1418 FILLER_0_46_169
*1419 FILLER_0_46_181
*1420 FILLER_0_46_193
*1421 FILLER_0_46_197
*1422 FILLER_0_46_209
*1423 FILLER_0_46_21
*1424 FILLER_0_46_221
*1425 FILLER_0_46_225
*1426 FILLER_0_46_237
*1427 FILLER_0_46_249
*1428 FILLER_0_46_253
*1429 FILLER_0_46_261
*1430 FILLER_0_46_27
*1431 FILLER_0_46_272
*1432 FILLER_0_46_281
*1433 FILLER_0_46_29
*1434 FILLER_0_46_293
*1435 FILLER_0_46_41
*1436 FILLER_0_46_53
*1437 FILLER_0_46_57
*1438 FILLER_0_46_65
*1439 FILLER_0_46_72
*1440 FILLER_0_46_85
*1441 FILLER_0_46_9
*1442 FILLER_0_46_97
*1443 FILLER_0_4_109
*1444 FILLER_0_4_121
*1445 FILLER_0_4_133
*1446 FILLER_0_4_139
*1447 FILLER_0_4_141
*1448 FILLER_0_4_15
*1449 FILLER_0_4_153
*1450 FILLER_0_4_159
*1451 FILLER_0_4_180
*1452 FILLER_0_4_220
*1453 FILLER_0_4_239
*1454 FILLER_0_4_246
*1455 FILLER_0_4_27
*1456 FILLER_0_4_273
*1457 FILLER_0_4_285
*1458 FILLER_0_4_29
*1459 FILLER_0_4_297
*1460 FILLER_0_4_3
*1461 FILLER_0_4_41
*1462 FILLER_0_4_53
*1463 FILLER_0_4_65
*1464 FILLER_0_4_77
*1465 FILLER_0_4_83
*1466 FILLER_0_4_85
*1467 FILLER_0_4_97
*1468 FILLER_0_5_105
*1469 FILLER_0_5_111
*1470 FILLER_0_5_113
*1471 FILLER_0_5_125
*1472 FILLER_0_5_137
*1473 FILLER_0_5_149
*1474 FILLER_0_5_15
*1475 FILLER_0_5_161
*1476 FILLER_0_5_167
*1477 FILLER_0_5_222
*1478 FILLER_0_5_229
*1479 FILLER_0_5_236
*1480 FILLER_0_5_249
*1481 FILLER_0_5_260
*1482 FILLER_0_5_27
*1483 FILLER_0_5_270
*1484 FILLER_0_5_278
*1485 FILLER_0_5_281
*1486 FILLER_0_5_293
*1487 FILLER_0_5_3
*1488 FILLER_0_5_39
*1489 FILLER_0_5_51
*1490 FILLER_0_5_55
*1491 FILLER_0_5_57
*1492 FILLER_0_5_69
*1493 FILLER_0_5_81
*1494 FILLER_0_5_93
*1495 FILLER_0_6_109
*1496 FILLER_0_6_121
*1497 FILLER_0_6_133
*1498 FILLER_0_6_139
*1499 FILLER_0_6_141
*1500 FILLER_0_6_15
*1501 FILLER_0_6_153
*1502 FILLER_0_6_157
*1503 FILLER_0_6_205
*1504 FILLER_0_6_250
*1505 FILLER_0_6_267
*1506 FILLER_0_6_27
*1507 FILLER_0_6_279
*1508 FILLER_0_6_29
*1509 FILLER_0_6_291
*1510 FILLER_0_6_3